### 
### Created by X-TOOL on Mon Sep 10 21:12:45 2018
### 

@<TRIPOS>MOLECULE
1epq_ligand
   82    83     1     0     0
SMALL
GAST_HUCK


@<TRIPOS>ATOM
      1 S           2.5130   26.8580   19.9220 S.o       1 0QF         0.0246
      2 O1S         2.9150   27.7570   20.9730 O.co2     1 0QF        -0.4990
      3 O2S         1.3800   27.4970   19.3050 O.co2     1 0QF        -0.4990
      4 N           3.3180   26.8670   18.8810 N.am      1 0QF        -0.2856
      5 CA          3.9880   28.0780   18.4200 C.3       1 0QF         0.1261
      6 C           3.2950   28.6280   17.1980 C.2       1 0QF         0.2019
      7 O           2.8370   27.8720   16.3370 O.2       1 0QF        -0.3947
      8 CB          5.4220   27.7720   18.0490 C.3       1 0QF         0.0172
      9 CG          6.3260   27.9180   19.2420 C.ar      1 0QF        -0.0390
     10 CD1         6.3350   29.1240   19.9380 C.ar      1 0QF        -0.0601
     11 CD2         7.1200   26.8470   19.6350 C.ar      1 0QF        -0.0601
     12 CE1         7.1530   29.2660   21.0520 C.ar      1 0QF        -0.0686
     13 CE2         7.9410   26.9860   20.7550 C.ar      1 0QF        -0.0686
     14 CZ          7.9560   28.1970   21.4640 C.ar      1 0QF        -0.0687
     15 N           3.2450   29.9370   17.1640 N.am      1 0QF        -0.2554
     16 CA          2.6390   30.6630   16.0500 C.3       1 0QF         0.1777
     17 C           3.3440   32.0070   15.8760 C.2       1 0QF         0.2125
     18 O           2.9630   33.0130   16.4880 O.2       1 0QF        -0.3936
     19 C1          6.6630   32.8800   14.9000 C.3       1 0QF        -0.0245
     20 C2          5.1670   33.1840   14.7360 C.3       1 0QF         0.0706
     21 C3          4.8790   33.6500   13.3010 C.3       1 0QF         0.1038
     22 C4          3.3850   33.9690   13.1620 C.3       1 0QF         0.0835
     23 C5          3.0280   34.3300   11.7170 C.3       1 0QF        -0.0220
     24 C6          1.5260   34.6330   11.6200 C.3       1 0QF        -0.0443
     25 C7          1.1910   35.2180   10.2460 C.3       1 0QF        -0.0626
     26 C8          0.7180   33.3470   11.8200 C.3       1 0QF        -0.0626
     27 C1'         7.0290   32.3230   16.2870 C.3       1 0QF        -0.0389
     28 C2'         6.6760   33.3410   17.3820 C.3       1 0QF        -0.0501
     29 C3'         6.9910   32.7630   18.7690 C.3       1 0QF        -0.0528
     30 C4'         8.4570   32.3360   18.8350 C.3       1 0QF        -0.0530
     31 C5'         8.7680   31.3890   17.6790 C.3       1 0QF        -0.0528
     32 C6'         8.4070   32.0510   16.3450 C.3       1 0QF        -0.0501
     33 N2          4.3680   31.9850   15.0390 N.am      1 0QF        -0.2787
     34 O3          5.2330   32.6290   12.3770 O.3       1 0QF        -0.3869
     35 O4          3.0190   35.1530   14.0580 O.3       1 0QF        -0.3892
     36 S           0.8220   30.9790   16.2880 S.3       1 0QF        -0.1121
     37 C1         -0.2300   29.4960   15.8910 C.3       1 0QF        -0.0047
     38 C2         -1.5610   29.8640   15.2340 C.3       1 0QF        -0.0560
     39 H1          3.4763   26.0117   18.3876 H         1 0QF         0.1580
     40 H2          3.9677   28.8289   19.2235 H         1 0QF         0.0769
     41 H3          5.7475   28.4690   17.2627 H         1 0QF         0.0469
     42 H4          5.4848   26.7401   17.6733 H         1 0QF         0.0469
     43 H5          5.7081   29.9464   19.6129 H         1 0QF         0.0557
     44 H6          7.1018   25.9165   19.0792 H         1 0QF         0.0557
     45 H7          7.1690   30.2013   21.5997 H         1 0QF         0.0599
     46 H8          8.5656   26.1605   21.0765 H         1 0QF         0.0599
     47 H9          8.5926   28.3046   22.3348 H         1 0QF         0.0559
     48 H10         3.6342   30.4559   17.9251 H         1 0QF         0.1891
     49 H11         2.7712   30.0647   15.1365 H         1 0QF         0.0921
     50 H12         6.9529   32.1394   14.1401 H         1 0QF         0.0291
     51 H13         7.2268   33.8107   14.7389 H         1 0QF         0.0291
     52 H14         4.8876   33.9857   15.4355 H         1 0QF         0.0582
     53 H15         5.4678   34.5541   13.0868 H         1 0QF         0.0642
     54 H16         2.8037   33.0865   13.4673 H         1 0QF         0.0620
     55 H17         3.2748   33.4856   11.0566 H         1 0QF         0.0293
     56 H18         3.6013   35.2166   11.4084 H         1 0QF         0.0293
     57 H19         1.2547   35.3592   12.4004 H         1 0QF         0.0296
     58 H20         0.1130   35.4300   10.1907 H         1 0QF         0.0232
     59 H21         1.4630   34.4946    9.4632 H         1 0QF         0.0232
     60 H22         1.7560   36.1499   10.0965 H         1 0QF         0.0232
     61 H23         0.9509   32.9172   12.8054 H         1 0QF         0.0232
     62 H24         0.9793   32.6237   11.0335 H         1 0QF         0.0232
     63 H25        -0.3563   33.5766   11.7648 H         1 0QF         0.0232
     64 H26         6.4665   31.3938   16.4607 H         1 0QF         0.0302
     65 H27         5.6038   33.5797   17.3235 H         1 0QF         0.0268
     66 H28         7.2646   34.2575   17.2287 H         1 0QF         0.0268
     67 H29         6.3483   31.8898   18.9546 H         1 0QF         0.0265
     68 H30         6.7995   33.5287   19.5351 H         1 0QF         0.0265
     69 H31         8.6460   31.8228   19.7894 H         1 0QF         0.0265
     70 H32         9.1007   33.2251   18.7629 H         1 0QF         0.0265
     71 H33         8.1821   30.4656   17.7973 H         1 0QF         0.0265
     72 H34         9.8408   31.1460   17.6861 H         1 0QF         0.0265
     73 H35         8.9664   32.9929   16.2453 H         1 0QF         0.0268
     74 H36         8.6775   31.3749   15.5206 H         1 0QF         0.0268
     75 H37         4.6085   31.1217   14.5954 H         1 0QF         0.1856
     76 H38         6.1587   32.4332   12.4625 H         1 0QF         0.2100
     77 H39         3.5273   35.9130   13.7999 H         1 0QF         0.2099
     78 H40        -0.4387   28.9544   16.8254 H         1 0QF         0.0376
     79 H41         0.3300   28.8427   15.2057 H         1 0QF         0.0376
     80 H42        -2.1328   28.9477   15.0258 H         1 0QF         0.0238
     81 H43        -1.3695   30.3986   14.2919 H         1 0QF         0.0238
     82 H44        -2.1381   30.5103   15.9116 H         1 0QF         0.0238
@<TRIPOS>BOND
     1    1    3 ar 
     2    1    2 ar 
     3    6    5 1  
     4    5    8 1  
     5    5    4 1  
     6    8    9 1  
     7    9   11 ar 
     8    9   10 ar 
     9   10   12 ar 
    10   12   14 ar 
    11   13   14 ar 
    12   11   13 ar 
    13    6    7 2  
    14   17   16 1  
    15   16   15 1  
    16   17   18 2  
    17   19   27 1  
    18   20   19 1  
    19   33   20 1  
    20   20   21 1  
    21   21   34 1  
    22   21   22 1  
    23   22   35 1  
    24   22   23 1  
    25   23   24 1  
    26   24   26 1  
    27   24   25 1  
    28   27   32 1  
    29   27   28 1  
    30   28   29 1  
    31   29   30 1  
    32   31   30 1  
    33   32   31 1  
    34   36   37 1  
    35   37   38 1  
    36   15    6 am 
    37    4    1 am 
    38   16   36 1  
    39   33   17 am 
    40    4   39 1  
    41    5   40 1  
    42    8   41 1  
    43    8   42 1  
    44   10   43 1  
    45   11   44 1  
    46   12   45 1  
    47   13   46 1  
    48   14   47 1  
    49   15   48 1  
    50   16   49 1  
    51   19   50 1  
    52   19   51 1  
    53   20   52 1  
    54   21   53 1  
    55   22   54 1  
    56   23   55 1  
    57   23   56 1  
    58   24   57 1  
    59   25   58 1  
    60   25   59 1  
    61   25   60 1  
    62   26   61 1  
    63   26   62 1  
    64   26   63 1  
    65   27   64 1  
    66   28   65 1  
    67   28   66 1  
    68   29   67 1  
    69   29   68 1  
    70   30   69 1  
    71   30   70 1  
    72   31   71 1  
    73   31   72 1  
    74   32   73 1  
    75   32   74 1  
    76   33   75 1  
    77   34   76 1  
    78   35   77 1  
    79   37   78 1  
    80   37   79 1  
    81   38   80 1  
    82   38   81 1  
    83   38   82 1  
@<TRIPOS>SUBSTRUCTURE
     1 0QF         1

