### 
### Created by X-TOOL on Mon Sep 10 21:12:47 2018
### 

@<TRIPOS>MOLECULE
1dmt_ligand
   69    71     1     0     0
SMALL
GAST_HUCK


@<TRIPOS>ATOM
      1 C1         27.2160   41.1930   31.6090 C.3       1 RDF         0.2225
      2 O1         27.6230   42.2720   30.8190 O.3       1 RDF        -0.2276
      3 C2         25.6860   41.0020   31.4970 C.3       1 RDF         0.1394
      4 O2         25.2390   40.0860   32.4720 O.3       1 RDF        -0.3837
      5 C3         25.2940   40.5440   30.0730 C.3       1 RDF         0.1144
      6 O3         23.8550   40.4130   29.9470 O.3       1 RDF        -0.3864
      7 C4         26.0640   39.2580   29.7010 C.3       1 RDF         0.1095
      8 O4         25.8560   39.0050   28.2870 O.3       1 RDF        -0.3866
      9 C5         27.5530   39.5560   29.9040 C.3       1 RDF         0.0877
     10 O5         27.8650   39.9810   31.2330 O.3       1 RDF        -0.3388
     11 C6         28.4170   38.3850   29.5120 C.3       1 RDF        -0.0360
     12 P          28.9340   43.1570   30.9510 P.3       1 RDF         0.2076
     13 O1P        30.1380   42.2750   31.0820 O.co2     1 RDF        -0.6075
     14 O2P        28.9360   44.1080   29.8520 O.co2     1 RDF        -0.6075
     15 N          28.8020   44.0060   32.4090 N.am      1 RDF        -0.2546
     16 CA         29.9980   44.4090   33.2370 C.3       1 RDF         0.1246
     17 C          30.3850   43.2660   34.1440 C.2       1 RDF         0.1995
     18 O          31.5050   42.8940   34.4160 O.2       1 RDF        -0.3949
     19 CB         29.5690   45.5800   34.1480 C.3       1 RDF        -0.0136
     20 CG         30.6210   46.0240   35.1710 C.3       1 RDF        -0.0429
     21 CD1        29.9540   47.1450   35.9840 C.3       1 RDF        -0.0625
     22 CD2        31.9080   46.5460   34.4720 C.3       1 RDF        -0.0625
     23 N1         29.2680   42.5490   34.7520 N.am      1 RDF        -0.2688
     24 CA1        29.6610   41.4190   35.6340 C.3       1 RDF         0.0986
     25 C7         28.5050   40.3730   35.6370 C.2       1 RDF         0.0613
     26 O6         27.4540   40.5900   34.9740 O.co2     1 RDF        -0.5665
     27 CB1        29.9190   41.9820   37.0740 C.3       1 RDF        -0.0013
     28 CG1        28.5810   42.2780   37.7480 C.2       1 RDF        -0.0424
     29 CD11       27.6540   43.1960   37.3360 C.2       1 RDF         0.0166
     30 CD21       28.0300   41.6250   38.9100 C.ar      1 RDF        -0.0214
     31 NE1        26.5520   43.1560   38.1730 N.pl3     1 RDF        -0.2891
     32 CE2        26.7560   42.1880   39.1630 C.ar      1 RDF         0.0603
     33 CE3        28.5160   40.5890   39.7790 C.ar      1 RDF        -0.0747
     34 CZ2        25.9040   41.7870   40.2420 C.ar      1 RDF        -0.0443
     35 CZ3        27.7090   40.1730   40.8470 C.ar      1 RDF        -0.0792
     36 CH2        26.3990   40.7710   41.0780 C.ar      1 RDF        -0.0768
     37 OXT        28.6820   39.3600   36.3090 O.co2     1 RDF        -0.5665
     38 H1         27.4715   41.4154   32.6556 H         1 RDF         0.1002
     39 H2         25.2020   41.9710   31.6888 H         1 RDF         0.0675
     40 H3         24.2986   39.9762   32.3942 H         1 RDF         0.2101
     41 H4         25.6097   41.3284   29.3694 H         1 RDF         0.0648
     42 H5         23.6397   40.1313   29.0656 H         1 RDF         0.2100
     43 H6         25.7373   38.4034   30.3116 H         1 RDF         0.0646
     44 H7         26.1826   39.7412   27.7833 H         1 RDF         0.2100
     45 H8         27.8049   40.3889   29.2311 H         1 RDF         0.0621
     46 H9         29.4749   38.6399   29.6726 H         1 RDF         0.0255
     47 H10        28.2540   38.1483   28.4502 H         1 RDF         0.0255
     48 H11        28.1527   37.5122   30.1271 H         1 RDF         0.0255
     49 H12        27.8899   44.2519   32.7370 H         1 RDF         0.1685
     50 H13        30.8392   44.6973   32.5896 H         1 RDF         0.0753
     51 H14        28.6673   45.2722   34.6976 H         1 RDF         0.0311
     52 H15        29.3314   46.4418   33.5070 H         1 RDF         0.0311
     53 H16        30.8859   45.1832   35.8289 H         1 RDF         0.0298
     54 H17        30.6576   47.5150   36.7443 H         1 RDF         0.0232
     55 H18        29.0528   46.7531   36.4783 H         1 RDF         0.0232
     56 H19        29.6743   47.9692   35.3114 H         1 RDF         0.0232
     57 H20        32.3693   45.7299   33.8965 H         1 RDF         0.0232
     58 H21        32.6177   46.9057   35.2316 H         1 RDF         0.0232
     59 H22        31.6476   47.3716   33.7933 H         1 RDF         0.0232
     60 H23        28.3136   42.7985   34.5880 H         1 RDF         0.1876
     61 H24        30.5800   40.9480   35.2551 H         1 RDF         0.0741
     62 H25        30.5089   42.9080   37.0062 H         1 RDF         0.0390
     63 H26        30.4717   41.2376   37.6659 H         1 RDF         0.0390
     64 H27        27.7661   43.8583   36.4789 H         1 RDF         0.0795
     65 H28        25.7130   43.7464   38.0814 H         1 RDF         0.2216
     66 H29        29.4875   40.1380   39.6120 H         1 RDF         0.0540
     67 H30        24.9331   42.2409   40.4047 H         1 RDF         0.0541
     68 H31        28.0644   39.3942   41.5120 H         1 RDF         0.0510
     69 H32        25.7958   40.4256   41.9098 H         1 RDF         0.0530
@<TRIPOS>BOND
     1    1    2 1  
     2    1    3 1  
     3    1   10 1  
     4    2   12 1  
     5    3    4 1  
     6    3    5 1  
     7    5    6 1  
     8    5    7 1  
     9    7    8 1  
    10    7    9 1  
    11    9   10 1  
    12    9   11 1  
    13   12   13 ar 
    14   12   14 ar 
    15   12   15 am 
    16   15   16 1  
    17   16   17 1  
    18   16   19 1  
    19   17   18 2  
    20   17   23 am 
    21   19   20 1  
    22   20   21 1  
    23   20   22 1  
    24   23   24 1  
    25   24   25 1  
    26   24   27 1  
    27   25   26 ar 
    28   25   37 ar 
    29   27   28 1  
    30   28   29 2  
    31   28   30 1  
    32   29   31 1  
    33   30   32 ar 
    34   30   33 ar 
    35   31   32 1  
    36   32   34 ar 
    37   33   35 ar 
    38   34   36 ar 
    39   35   36 ar 
    40    1   38 1  
    41    3   39 1  
    42    4   40 1  
    43    5   41 1  
    44    6   42 1  
    45    7   43 1  
    46    8   44 1  
    47    9   45 1  
    48   11   46 1  
    49   11   47 1  
    50   11   48 1  
    51   15   49 1  
    52   16   50 1  
    53   19   51 1  
    54   19   52 1  
    55   20   53 1  
    56   21   54 1  
    57   21   55 1  
    58   21   56 1  
    59   22   57 1  
    60   22   58 1  
    61   22   59 1  
    62   23   60 1  
    63   24   61 1  
    64   27   62 1  
    65   27   63 1  
    66   29   64 1  
    67   31   65 1  
    68   33   66 1  
    69   34   67 1  
    70   35   68 1  
    71   36   69 1  
@<TRIPOS>SUBSTRUCTURE
     1 RDF         1

