### 
### Created by X-TOOL on Mon Sep 10 21:12:49 2018
### 

@<TRIPOS>MOLECULE
1lf8_ligand
  130   130     1     0     0
SMALL
GAST_HUCK


@<TRIPOS>ATOM
      1 N          40.9480   18.0020   59.4400 N.4       1 SEP         0.2398
      2 CA         39.6150   17.4980   59.8430 C.3       1 SEP         0.0932
      3 CB         38.5530   18.5850   60.0220 C.3       1 SEP         0.1380
      4 OG         37.2580   18.0100   59.9530 O.3       1 SEP        -0.2680
      5 C          39.1960   16.2600   59.0730 C.2       1 SEP         0.2294
      6 O          38.6130   15.3280   59.6150 O.2       1 SEP        -0.3906
      7 P          36.0470   18.8570   59.6650 P.3       1 SEP         0.2012
      8 O1P        34.9210   18.4280   60.5400 O.co2     1 SEP        -0.5537
      9 O2P        35.6540   18.6850   58.2410 O.co2     1 SEP        -0.5537
     10 O3P        36.3600   20.2880   59.9280 O.co2     1 SEP        -0.5537
     11 N          39.5640   16.2330   57.7980 N.am      1 ASP        -0.2594
     12 CA         39.2320   15.1340   56.9080 C.3       1 ASP         0.1424
     13 C          40.2410   13.9880   57.0000 C.2       1 ASP         0.2056
     14 O          41.3270   14.1460   57.5510 O.2       1 ASP        -0.3943
     15 CB         39.1630   15.6740   55.4730 C.3       1 ASP         0.0406
     16 CG         38.7480   14.6240   54.4630 C.2       1 ASP         0.0393
     17 OD1        37.8610   13.8090   54.7840 O.co2     1 ASP        -0.5688
     18 OD2        39.3030   14.6300   53.3470 O.co2     1 ASP        -0.5688
     19 N          39.8530   12.8380   56.4550 N.am      1 GLU        -0.2635
     20 CA         40.6790   11.6340   56.4130 C.3       1 GLU         0.1325
     21 C          41.6830   11.7720   55.2730 C.2       1 GLU         0.2041
     22 O          41.6810   12.7680   54.5520 O.2       1 GLU        -0.3944
     23 CB         39.8060   10.4100   56.1310 C.3       1 GLU        -0.0008
     24 CG         38.8970    9.9840   57.2650 C.3       1 GLU         0.0044
     25 CD         37.8420    8.9830   56.8160 C.2       1 GLU         0.0350
     26 OE1        38.1490    8.1060   55.9750 O.co2     1 GLU        -0.5690
     27 OE2        36.6990    9.0740   57.3100 O.co2     1 GLU        -0.5690
     28 N          42.5370   10.7650   55.1160 N.am      1 ASP        -0.2622
     29 CA         43.5280   10.7460   54.0440 C.3       1 ASP         0.1423
     30 C          42.9340    9.9120   52.9170 C.2       1 ASP         0.2056
     31 O          42.0740    9.0620   53.1580 O.2       1 ASP        -0.3943
     32 CB         44.8310   10.0980   54.5250 C.3       1 ASP         0.0406
     33 CG         45.5650   10.9480   55.5400 C.2       1 ASP         0.0393
     34 OD1        45.9070   12.1010   55.2040 O.co2     1 ASP        -0.5688
     35 OD2        45.8040   10.4650   56.6680 O.co2     1 ASP        -0.5688
     36 N          43.3910   10.1520   51.6920 N.am      1 LEU        -0.2636
     37 CA         42.8860    9.4100   50.5470 C.3       1 LEU         0.1312
     38 C          43.1190    7.9180   50.7270 C.2       1 LEU         0.2039
     39 O          44.2380    7.4900   51.0080 O.2       1 LEU        -0.3944
     40 CB         43.5660    9.8800   49.2590 C.3       1 LEU        -0.0101
     41 CG         43.1610    9.1130   47.9960 C.3       1 LEU        -0.0425
     42 CD1        41.6540    9.1860   47.8210 C.3       1 LEU        -0.0625
     43 CD2        43.8730    9.6890   46.7850 C.3       1 LEU        -0.0625
     44 N          42.0580    7.1330   50.5730 N.am      1 LEU        -0.2637
     45 CA         42.1510    5.6840   50.7100 C.3       1 LEU         0.1312
     46 C          43.0990    5.1470   49.6490 C.2       1 LEU         0.2040
     47 O          43.1720    5.6850   48.5450 O.2       1 LEU        -0.3944
     48 CB         40.7800    5.0420   50.5150 C.3       1 LEU        -0.0101
     49 CG         40.7190    3.5360   50.7670 C.3       1 LEU        -0.0425
     50 CD1        40.2310    3.2910   52.1880 C.3       1 LEU        -0.0625
     51 CD2        39.7860    2.8780   49.7680 C.3       1 LEU        -0.0625
     52 N          43.8230    4.0860   49.9800 N.am      1 HIS        -0.2619
     53 CA         44.7540    3.4920   49.0330 C.3       1 HIS         0.1421
     54 C          44.5050    1.9990   48.8380 C.2       1 HIS         0.2055
     55 O          44.4460    1.2280   49.7970 O.2       1 HIS        -0.3942
     56 CB         46.1950    3.7640   49.4790 C.3       1 HIS         0.0427
     57 CG         46.6300    5.1810   49.2540 C.2       1 HIS         0.0561
     58 ND1        47.7890    5.7020   49.7890 N.pl3     1 HIS        -0.2623
     59 CD2        46.0620    6.1850   48.5410 C.2       1 HIS        -0.0276
     60 CE1        47.9160    6.9640   49.4160 C.2       1 HIS         0.0875
     61 NE2        46.8810    7.2820   48.6580 N.2       1 HIS        -0.3437
     62 N          44.3440    1.6150   47.5750 N.am      1 ILE        -0.2691
     63 CA         44.0760    0.2350   47.1860 C.3       1 ILE         0.0969
     64 C          45.3690   -0.5400   46.9630 C.2       1 ILE         0.0604
     65 O          45.6600   -0.9730   45.8240 O.co2     1 ILE        -0.5666
     66 CB         43.2550    0.2010   45.8890 C.3       1 ILE        -0.0092
     67 CG1        42.0770    1.1690   46.0080 C.3       1 ILE        -0.0497
     68 CG2        42.7580   -1.2090   45.6170 C.3       1 ILE        -0.0588
     69 CD1        41.4740    1.5490   44.6850 C.3       1 ILE        -0.0649
     70 OXT        46.1060   -0.7060   47.9580 O.co2     1 ILE        -0.5666
     71 H1         41.1749   18.8217   59.9810 H         1 SEP         0.2016
     72 H2         40.9356   18.2389   58.4603 H         1 SEP         0.2016
     73 H3         41.6408   17.2886   59.6045 H         1 SEP         0.2016
     74 H4         39.7698   17.1255   60.8664 H         1 SEP         0.1125
     75 H5         38.6616   19.3359   59.2256 H         1 SEP         0.0696
     76 H6         38.6862   19.0675   61.0015 H         1 SEP         0.0696
     77 H7         40.0917   17.0010   57.4351 H         1 ASP         0.1886
     78 H8         38.2431   14.7430   57.1893 H         1 ASP         0.0819
     79 H9         40.1565   16.0549   55.1940 H         1 ASP         0.0478
     80 H10        38.4332   16.4965   55.4430 H         1 ASP         0.0478
     81 H11        38.9400   12.7953   56.0493 H         1 GLU         0.1883
     82 H12        41.2051   11.5078   57.3708 H         1 GLU         0.0801
     83 H13        40.4710    9.5664   55.8942 H         1 GLU         0.0330
     84 H14        39.1760   10.6365   55.2582 H         1 GLU         0.0330
     85 H15        38.3912   10.8746   57.6664 H         1 GLU         0.0433
     86 H16        39.5087    9.5227   58.0543 H         1 GLU         0.0433
     87 H17        42.4993    9.9952   55.7532 H         1 ASP         0.1884
     88 H18        43.7312   11.7700   53.6973 H         1 ASP         0.0819
     89 H19        45.4877    9.9410   53.6566 H         1 ASP         0.0478
     90 H20        44.5928    9.1276   54.9849 H         1 ASP         0.0478
     91 H21        44.0917   10.8523   51.5556 H         1 LEU         0.1883
     92 H22        41.8043    9.5912   50.4627 H         1 LEU         0.0800
     93 H23        44.6531    9.7739   49.3887 H         1 LEU         0.0315
     94 H24        43.3164   10.9407   49.1088 H         1 LEU         0.0315
     95 H25        43.4543    8.0588   48.1087 H         1 LEU         0.0298
     96 H26        41.3631    8.6354   46.9143 H         1 LEU         0.0232
     97 H27        41.3464   10.2378   47.7257 H         1 LEU         0.0232
     98 H28        41.1611    8.7376   48.6962 H         1 LEU         0.0232
     99 H29        44.9609    9.6253   46.9347 H         1 LEU         0.0232
    100 H30        43.5819   10.7417   46.6548 H         1 LEU         0.0232
    101 H31        43.5922    9.1173   45.8882 H         1 LEU         0.0232
    102 H32        41.1732    7.5463   50.3577 H         1 LEU         0.1883
    103 H33        42.5334    5.4348   51.7108 H         1 LEU         0.0800
    104 H34        40.4640    5.2254   49.4775 H         1 LEU         0.0315
    105 H35        40.0756    5.5301   51.2046 H         1 LEU         0.0315
    106 H36        41.7257    3.1080   50.6516 H         1 LEU         0.0298
    107 H37        40.1841    2.2086   52.3780 H         1 LEU         0.0232
    108 H38        39.2296    3.7288   52.3124 H         1 LEU         0.0232
    109 H39        40.9267    3.7585   52.9004 H         1 LEU         0.0232
    110 H40        40.1517    3.0638   48.7473 H         1 LEU         0.0232
    111 H41        38.7756    3.2987   49.8777 H         1 LEU         0.0232
    112 H42        39.7543    1.7944   49.9545 H         1 LEU         0.0232
    113 H43        43.7276    3.6890   50.8929 H         1 HIS         0.1885
    114 H44        44.6020    3.9823   48.0601 H         1 HIS         0.0824
    115 H45        46.8660    3.0995   48.9150 H         1 HIS         0.0491
    116 H46        46.2757    3.5408   50.5531 H         1 HIS         0.0491
    117 H47        48.4525    5.1881   50.3862 H         1 HIS         0.2386
    118 H48        45.1301    6.1317   47.9801 H         1 HIS         0.0324
    119 H49        48.7347    7.6289   49.6873 H         1 HIS         0.1149
    120 H50        44.4100    2.3069   46.8560 H         1 ILE         0.1876
    121 H51        43.5027   -0.2512   47.9891 H         1 ILE         0.0729
    122 H52        43.8947    0.5182   45.0523 H         1 ILE         0.0338
    123 H53        42.4284    2.0848   46.5057 H         1 ILE         0.0267
    124 H54        41.2974    0.6941   46.6218 H         1 ILE         0.0267
    125 H55        43.6171   -1.8910   45.5345 H         1 ILE         0.0234
    126 H56        42.1880   -1.2218   44.6763 H         1 ILE         0.0234
    127 H57        42.1092   -1.5349   46.4433 H         1 ILE         0.0234
    128 H58        40.6370    2.2435   44.8495 H         1 ILE         0.0230
    129 H59        41.1063    0.6455   44.1766 H         1 ILE         0.0230
    130 H60        42.2373    2.0362   44.0605 H         1 ILE         0.0230
@<TRIPOS>BOND
     1    1    2 1  
     2    2    3 1  
     3    2    5 1  
     4    3    4 1  
     5    4    7 1  
     6    5    6 2  
     7    5   11 am 
     8    7    8 ar 
     9    7    9 ar 
    10    7   10 ar 
    11   11   12 1  
    12   12   13 1  
    13   12   15 1  
    14   13   14 2  
    15   13   19 am 
    16   15   16 1  
    17   16   17 ar 
    18   16   18 ar 
    19   19   20 1  
    20   20   21 1  
    21   20   23 1  
    22   21   22 2  
    23   21   28 am 
    24   23   24 1  
    25   24   25 1  
    26   25   26 ar 
    27   25   27 ar 
    28   28   29 1  
    29   29   30 1  
    30   29   32 1  
    31   30   31 2  
    32   30   36 am 
    33   32   33 1  
    34   33   34 ar 
    35   33   35 ar 
    36   36   37 1  
    37   37   38 1  
    38   37   40 1  
    39   38   39 2  
    40   38   44 am 
    41   40   41 1  
    42   41   42 1  
    43   41   43 1  
    44   44   45 1  
    45   45   46 1  
    46   45   48 1  
    47   46   47 2  
    48   46   52 am 
    49   48   49 1  
    50   49   50 1  
    51   49   51 1  
    52   52   53 1  
    53   53   54 1  
    54   53   56 1  
    55   54   55 2  
    56   54   62 am 
    57   56   57 1  
    58   57   58 1  
    59   57   59 2  
    60   58   60 1  
    61   59   61 1  
    62   60   61 2  
    63   62   63 1  
    64   63   64 1  
    65   63   66 1  
    66   64   65 ar 
    67   64   70 ar 
    68   66   67 1  
    69   66   68 1  
    70   67   69 1  
    71    1   71 1  
    72    1   72 1  
    73    1   73 1  
    74    2   74 1  
    75    3   75 1  
    76    3   76 1  
    77   11   77 1  
    78   12   78 1  
    79   15   79 1  
    80   15   80 1  
    81   19   81 1  
    82   20   82 1  
    83   23   83 1  
    84   23   84 1  
    85   24   85 1  
    86   24   86 1  
    87   28   87 1  
    88   29   88 1  
    89   32   89 1  
    90   32   90 1  
    91   36   91 1  
    92   37   92 1  
    93   40   93 1  
    94   40   94 1  
    95   41   95 1  
    96   42   96 1  
    97   42   97 1  
    98   42   98 1  
    99   43   99 1  
   100   43  100 1  
   101   43  101 1  
   102   44  102 1  
   103   45  103 1  
   104   48  104 1  
   105   48  105 1  
   106   49  106 1  
   107   50  107 1  
   108   50  108 1  
   109   50  109 1  
   110   51  110 1  
   111   51  111 1  
   112   51  112 1  
   113   52  113 1  
   114   53  114 1  
   115   56  115 1  
   116   56  116 1  
   117   58  117 1  
   118   59  118 1  
   119   60  119 1  
   120   62  120 1  
   121   63  121 1  
   122   66  122 1  
   123   67  123 1  
   124   67  124 1  
   125   68  125 1  
   126   68  126 1  
   127   68  127 1  
   128   69  128 1  
   129   69  129 1  
   130   69  130 1  
@<TRIPOS>SUBSTRUCTURE
     1 SEP         1

