### 
### Created by X-TOOL on Mon Sep 10 21:12:50 2018
### 

@<TRIPOS>MOLECULE
1h07_ligand
   60    62     1     0     0
SMALL
GAST_HUCK


@<TRIPOS>ATOM
      1 C22         4.5590   26.6480    6.0840 C.ar      1 MFP        -0.0419
      2 C1          0.3070   32.4400    7.5680 C.ar      1 MFP         0.0647
      3 C5          1.7060   30.6460    7.2870 C.ar      1 MFP         0.1389
      4 C4          0.7960   29.8520    8.1150 C.ar      1 MFP         0.0440
      5 C3         -0.3650   30.4620    8.6430 C.ar      1 MFP         0.1775
      6 C11        -0.7830   25.6330   11.1900 C.ar      1 MFP        -0.0469
      7 C10        -0.2790   26.7680   11.8550 C.ar      1 MFP        -0.0519
      8 C9         -0.4630   28.0620   11.3120 C.ar      1 MFP         0.0446
      9 C8         -1.1650   28.2670   10.0790 C.ar      1 MFP         0.1120
     10 C12        -1.4830   25.8000    9.9600 C.ar      1 MFP        -0.0586
     11 C17        -2.6830   31.5500   10.7450 C.1       1 MFP         0.0429
     12 C16        -2.6520   30.3730    9.9560 C.2       1 MFP         0.1556
     13 C13        -1.6720   27.1080    9.4060 C.ar      1 MFP        -0.0264
     14 C15        -0.5780   24.2470   11.7990 C.3       1 MFP        -0.0322
     15 C20         3.4440   28.6890    6.8580 C.ar      1 MFP         0.0532
     16 N2         -0.5800   31.7770    8.3310 N.ar      1 MFP        -0.2534
     17 N6          1.4270   31.9370    7.0360 N.ar      1 MFP        -0.2599
     18 N7         -1.3800   29.6800    9.5130 N.pl3     1 MFP        -0.1753
     19 BR          0.2520   29.5170   12.2970 Br        1 MFP        -0.0531
     20 N18        -2.7220   32.5140   11.3920 N.1       1 MFP        -0.4175
     21 N19         2.9400   30.0530    6.7120 N.pl3     1 MFP        -0.2617
     22 C21         4.1430   27.9910    5.8320 C.ar      1 MFP        -0.0462
     23 C23         4.2610   26.0680    7.3500 C.ar      1 MFP         0.0798
     24 C24         3.5830   26.7990    8.3180 C.ar      1 MFP        -0.0419
     25 C25         3.1920   28.0760    8.0790 C.ar      1 MFP        -0.0462
     26 O26         4.6160   24.7590    7.6550 O.3       1 MFP        -0.3225
     27 C27         4.0940   24.0760    8.8390 C.3       1 MFP         0.0989
     28 C28         4.6110   22.6540    8.9440 C.3       1 MFP         0.1219
     29 C29         5.9180   22.4900    9.7500 C.3       1 MFP        -0.0032
     30 N30         5.9410   21.3390   10.7020 N.4       1 MFP         0.2328
     31 C31         5.8350   21.7240   12.1390 C.3       1 MFP        -0.0433
     32 C32         7.0640   20.3930   10.4520 C.3       1 MFP        -0.0433
     33 O33         4.7280   22.0870    7.6420 O.3       1 MFP        -0.3839
     34 H1          5.0904   26.0821    5.3274 H         1 MFP         0.0516
     35 H2          0.0940   33.4831    7.3642 H         1 MFP         0.1060
     36 H3          1.0099   28.8094    8.3206 H         1 MFP         0.0643
     37 H4          0.2546   26.6492   12.7911 H         1 MFP         0.0577
     38 H5         -1.8746   24.9329    9.4406 H         1 MFP         0.0574
     39 H6         -3.6026   29.9395    9.6489 H         1 MFP         0.1212
     40 H7         -2.2039   27.2218    8.4683 H         1 MFP         0.0596
     41 H8         -0.0179   24.3397   12.7411 H         1 MFP         0.0386
     42 H9         -0.0120   23.6178   11.0964 H         1 MFP         0.0386
     43 H10        -1.5565   23.7856   11.9981 H         1 MFP         0.0386
     44 H11         3.5149   30.6844    6.1360 H         1 MFP         0.2127
     45 H12         4.3544   28.4680    4.8818 H         1 MFP         0.0511
     46 H13         3.3636   26.3430    9.2766 H         1 MFP         0.0516
     47 H14         2.6736   28.6279    8.8547 H         1 MFP         0.0511
     48 H15         2.9958   24.0519    8.7807 H         1 MFP         0.0637
     49 H16         4.4015   24.6335    9.7360 H         1 MFP         0.0637
     50 H17         3.8429   22.0799    9.4830 H         1 MFP         0.0674
     51 H18         6.0789   23.4121   10.3278 H         1 MFP         0.0841
     52 H19         6.7435   22.3563    9.0353 H         1 MFP         0.0841
     53 H20         5.1009   20.8182   10.5042 H         1 MFP         0.2029
     54 H21         5.8600   20.8190   12.7638 H         1 MFP         0.0777
     55 H22         4.8886   22.2591   12.3064 H         1 MFP         0.0777
     56 H23         6.6782   22.3777   12.4066 H         1 MFP         0.0777
     57 H24         7.0996   20.1408    9.3819 H         1 MFP         0.0777
     58 H25         6.9089   19.4762   11.0398 H         1 MFP         0.0777
     59 H26         8.0128   20.8633   10.7496 H         1 MFP         0.0777
     60 H27         5.4297   22.5208    7.1708 H         1 MFP         0.2101
@<TRIPOS>BOND
     1   22    1 ar 
     2    1   23 ar 
     3    2   16 ar 
     4   17    2 ar 
     5    3    4 ar 
     6    3   17 ar 
     7   21    3 1  
     8    4    5 ar 
     9    5   16 ar 
    10    5   18 1  
    11    7    6 ar 
    12   10    6 ar 
    13    6   14 1  
    14    8    7 ar 
    15    9    8 ar 
    16    9   13 ar 
    17   18    9 1  
    18   13   10 ar 
    19   12   11 2  
    20   18   12 1  
    21    8   19 1  
    22   11   20 3  
    23   24   23 ar 
    24   23   26 1  
    25   25   24 ar 
    26   26   27 1  
    27   27   28 1  
    28   28   29 1  
    29   28   33 1  
    30   29   30 1  
    31   30   31 1  
    32   30   32 1  
    33   15   25 ar 
    34   15   22 ar 
    35   15   21 1  
    36    1   34 1  
    37    2   35 1  
    38    4   36 1  
    39    7   37 1  
    40   10   38 1  
    41   12   39 1  
    42   13   40 1  
    43   14   41 1  
    44   14   42 1  
    45   14   43 1  
    46   21   44 1  
    47   22   45 1  
    48   24   46 1  
    49   25   47 1  
    50   27   48 1  
    51   27   49 1  
    52   28   50 1  
    53   29   51 1  
    54   29   52 1  
    55   30   53 1  
    56   31   54 1  
    57   31   55 1  
    58   31   56 1  
    59   32   57 1  
    60   32   58 1  
    61   32   59 1  
    62   33   60 1  
@<TRIPOS>SUBSTRUCTURE
     1 MFP         1

