#	Name:			1lvk_ligand
#	Creating user name:	wangrx
#	Creation time:		Wed Aug  4 16:23:34 2021

#	Modifying user name:	wangrx
#	Modification time:	Wed Aug  4 16:24:25 2021

@<TRIPOS>MOLECULE
1lvk_ligand
   59    62     1     0     0
SMALL
GAST_HUCK


@<TRIPOS>ATOM
      1 PB         34.0850   56.6260   21.0180 P.3       1 MNT         0.1975 
      2 O1B        33.5590   55.2580   20.8990 O.co2     1 MNT        -0.7095 
      3 O2B        33.6160   57.6380   19.9990 O.co2     1 MNT        -0.7095 
      4 O3B        33.7260   57.1730   22.4520 O.3       1 MNT        -0.1525 
      5 PA         36.7460   57.3880   20.0620 P.3       1 MNT         0.1549 
      6 O1A        36.5340   56.9610   18.6510 O.co2     1 MNT        -0.7115 
      7 O2A        36.7060   58.8380   20.3630 O.co2     1 MNT        -0.7115 
      8 O3A        35.7650   56.6890   21.0430 O.3       1 MNT        -0.2556 
      9 O5         38.1510   56.6920   20.4640 O.3       1 MNT        -0.3161 
     10 C5         38.6690   56.9590   21.7900 C.3       1 MNT         0.0931 
     11 C4         40.1590   57.2420   21.7110 C.3       1 MNT         0.1185 
     12 O4         40.7710   56.0520   21.2790 O.3       1 MNT        -0.3386 
     13 C3         40.6680   58.2700   20.7080 C.3       1 MNT         0.1198 
     14 O3         41.0180   59.5740   21.1660 O.3       1 MNT        -0.2735 
     15 C2         41.4030   57.6980   19.7760 C.3       1 MNT         0.0360 
     16 C1         41.6930   56.2900   20.2150 C.3       1 MNT         0.1755 
     17 N9         41.2890   55.3020   19.1820 N.pl3     1 MNT        -0.1945 
     18 C8         40.0700   54.7480   18.8130 C.2       1 MNT         0.1122 
     19 N7         40.1170   53.8450   17.7520 N.2       1 MNT        -0.2958 
     20 C5         41.4800   53.8470   17.4870 C.ar      1 MNT         0.1045 
     21 C6         42.1720   53.5110   16.2970 C.ar      1 MNT         0.1298 
     22 N6         41.9450   52.4920   15.4880 N.pl3     1 MNT        -0.3152 
     23 N1         43.5310   53.6300   16.3760 N.ar      1 MNT        -0.2698 
     24 C2         44.0770   54.3130   17.4540 C.ar      1 MNT         0.0533 
     25 N3         43.4970   54.9920   18.4470 N.ar      1 MNT        -0.2714 
     26 C4         42.1770   54.7090   18.3780 C.ar      1 MNT         0.1612 
     27 C'         40.8750   60.7410   20.4100 C.2       1 MNT         0.2549 
     28 O1'        40.6850   60.5310   19.2320 O.2       1 MNT        -0.3648 
     29 C1'        41.7570   61.9450   20.7580 C.ar      1 MNT         0.0789 
     30 C2'        41.4440   62.9620   19.7610 C.ar      1 MNT         0.0606 
     31 N2'        41.3970   62.8200   18.4060 N.pl3     1 MNT        -0.3212 
     32 CM'        41.2170   63.9500   17.5320 C.3       1 MNT         0.0140 
     33 C3'        41.4940   64.3340   20.2080 C.ar      1 MNT        -0.0378 
     34 C4'        41.8010   64.7250   21.5290 C.ar      1 MNT        -0.0689 
     35 C5'        42.2080   63.7120   22.4660 C.ar      1 MNT        -0.0690 
     36 C6'        42.2160   62.3430   22.0730 C.ar      1 MNT        -0.0520 
     37 BE         32.5950   58.1880   22.9920 Be        1 MNT         4.0000 
     38 F1         31.3240   57.3640   23.2320 F         1 MNT        -1.0000 
     39 F2         33.1100   58.8850   24.2910 F         1 MNT        -1.0000 
     40 F3         32.3210   59.2970   21.9510 F         1 MNT        -1.0000 
     41 H2         38.4970   56.0831   22.4328 H         1 MNT         0.0621 
     42 H3         38.1531   57.8327   22.2149 H         1 MNT         0.0621 
     43 H4         40.5046   57.5282   22.7153 H         1 MNT         0.0652 
     44 H5         39.7498   58.5047   20.1496 H         1 MNT         0.0676 
     45 H6         42.3451   58.2518   19.6508 H         1 MNT         0.0348 
     46 H7         40.8548   57.6866   18.8224 H         1 MNT         0.0348 
     47 H8         42.7446   56.1654   20.5125 H         1 MNT         0.0969 
     48 H9         39.1396   55.0021   19.3187 H         1 MNT         0.1349 
     49 H10        42.5272   52.3614   14.6484 H         1 MNT         0.1820 
     50 H11        41.1858   51.8279   15.6967 H         1 MNT         0.1820 
     51 H12        45.1599   54.2916   17.4973 H         1 MNT         0.0996 
     52 H13        41.4928   61.8797   17.9967 H         1 MNT         0.1779 
     53 H14        41.2093   63.6075   16.4867 H         1 MNT         0.0479 
     54 H15        42.0426   64.6620   17.6784 H         1 MNT         0.0479 
     55 H16        40.2616   64.4438   17.7631 H         1 MNT         0.0479 
     56 H17        41.2826   65.1124   19.4838 H         1 MNT         0.0529 
     57 H18        41.7318   65.7640   21.8304 H         1 MNT         0.0621 
     58 H19        42.5082   63.9903   23.4698 H         1 MNT         0.0519 
     59 H20        42.5701   61.5892   22.7669 H         1 MNT         0.0637 
@<TRIPOS>BOND
     1    1    2 ar   
     2    1    3 ar   
     3    1    4 1    
     4    8    1 1    
     5    5    6 ar   
     6    5    7 ar   
     7    5    8 1    
     8    5    9 1    
     9    9   10 1    
    10   10   11 1    
    11   11   12 1    
    12   11   13 1    
    13   12   16 1    
    14   13   14 1    
    15   13   15 1    
    16   14   27 1    
    17   15   16 1    
    18   16   17 1    
    19   17   18 1    
    20   17   26 1    
    21   18   19 2    
    22   19   20 1    
    23   20   21 ar   
    24   20   26 ar   
    25   21   22 1    
    26   21   23 ar   
    27   23   24 ar   
    28   24   25 ar   
    29   25   26 ar   
    30   27   28 2    
    31   27   29 1    
    32   29   30 ar   
    33   29   36 ar   
    34   30   31 1    
    35   30   33 ar   
    36   31   32 1    
    37   33   34 ar   
    38   34   35 ar   
    39   35   36 ar   
    40    4   37 1    
    41   37   40 1    
    42   37   39 1    
    43   37   38 1    
    44   10   41 1    
    45   10   42 1    
    46   11   43 1    
    47   13   44 1    
    48   15   45 1    
    49   15   46 1    
    50   16   47 1    
    51   18   48 1    
    52   22   49 1    
    53   22   50 1    
    54   24   51 1    
    55   31   52 1    
    56   32   53 1    
    57   32   54 1    
    58   32   55 1    
    59   33   56 1    
    60   34   57 1    
    61   35   58 1    
    62   36   59 1    
@<TRIPOS>SUBSTRUCTURE
     1 MNT         1 PERM              0 ****  ****    0 ROOT 
