### 
### Created by X-TOOL on Mon Sep 10 21:12:48 2018
### 

@<TRIPOS>MOLECULE
1hv5_ligand
   92    96     1     0     0
SMALL
GAST_HUCK


@<TRIPOS>ATOM
      1 N1         38.0990   63.2640    4.1400 N.am      1 RXP        -0.2989
      2 N2         40.5810   61.4990    5.8530 N.am      1 RXP        -0.2643
      3 C1         39.3270   61.3320    5.1100 C.3       1 RXP         0.1348
      4 C2         38.7530   59.9420    5.4070 C.3       1 RXP         0.0042
      5 C3         37.6320   59.6620    4.4600 C.2       1 RXP        -0.0418
      6 C4         37.8220   58.9940    3.2690 C.ar      1 RXP        -0.0214
      7 C5         36.2420   60.0280    4.5990 C.2       1 RXP         0.0167
      8 N3         35.5390   59.6190    3.4760 N.pl3     1 RXP        -0.2890
      9 C6         36.4050   58.9640    2.6220 C.ar      1 RXP         0.0603
     10 C7         38.9700   58.3580    2.5680 C.ar      1 RXP        -0.0747
     11 C8         36.0990   58.3350    1.3240 C.ar      1 RXP        -0.0443
     12 C9         38.6920   57.6720    1.2570 C.ar      1 RXP        -0.0792
     13 C10        37.2530   57.6540    0.6280 C.ar      1 RXP        -0.0768
     14 C11        38.4680   62.6480    5.3000 C.2       1 RXP         0.2004
     15 O1         38.1260   62.8810    6.4490 O.2       1 RXP        -0.3946
     16 O2         41.8050   62.2950    4.2750 O.2       1 RXP        -0.3966
     17 C12        41.7400   61.9980    5.3950 C.2       1 RXP         0.1829
     18 C13        43.7320   63.3790    6.4140 C.3       1 RXP        -0.0300
     19 C14        41.5990   65.4430    9.1570 C.ar      1 RXP        -0.0430
     20 C15        40.8980   64.9780   10.3310 C.ar      1 RXP        -0.0603
     21 C16        40.4540   65.9930   11.3050 C.ar      1 RXP        -0.0686
     22 C17        40.6460   67.4230   11.0950 C.ar      1 RXP        -0.0687
     23 C18        41.2500   67.8610    9.8620 C.ar      1 RXP        -0.0686
     24 C19        41.7170   66.9300    8.8070 C.ar      1 RXP        -0.0603
     25 C20        43.0010   62.0660    6.3240 C.3       1 RXP         0.0647
     26 C38        42.9790   64.3870    7.2150 C.3       1 RXP        -0.0409
     27 C39        42.0880   64.2440    8.5010 C.3       1 RXP        -0.0190
     28 C21        44.0980   61.1340    5.7600 C.3       1 RXP         0.0353
     29 P          45.3680   60.5860    6.8470 P.3       1 RXP         0.0153
     30 O1P        44.6450   60.2270    7.8740 O.co2     1 RXP        -0.6174
     31 O2P        46.3300   61.4020    7.2750 O.co2     1 RXP        -0.6174
     32 N4         45.2080   58.2120    5.7730 N.am      1 RXP        -0.2418
     33 C22        46.2440   59.1480    6.1830 C.3       1 RXP         0.1176
     34 C23        47.1010   58.3830    7.2150 C.3       1 RXP         0.0205
     35 C24        48.1740   57.6060    6.6520 C.ar      1 RXP        -0.0393
     36 C25        47.9660   56.1810    6.0740 C.ar      1 RXP        -0.0602
     37 C26        49.5350   58.2270    6.5930 C.ar      1 RXP        -0.0602
     38 C27        49.0270   55.4070    5.4420 C.ar      1 RXP        -0.0686
     39 C28        50.6440   57.4410    5.9600 C.ar      1 RXP        -0.0686
     40 C29        50.3600   56.0510    5.3950 C.ar      1 RXP        -0.0687
     41 C30        44.9210   57.1920    4.8090 C.2       1 RXP         0.3232
     42 O5         43.8640   56.3560    5.0690 O.2       1 RXP        -0.3774
     43 O6         45.9830   57.0440    3.7690 O.3       1 RXP        -0.2506
     44 C31        45.9220   55.8100    2.7960 C.3       1 RXP         0.1113
     45 C32        45.3340   54.4250    3.3390 C.ar      1 RXP        -0.0130
     46 C33        46.0690   53.5290    4.3640 C.ar      1 RXP        -0.0578
     47 C34        45.3070   52.3970    5.1070 C.ar      1 RXP        -0.0685
     48 C35        43.8110   52.0890    4.7740 C.ar      1 RXP        -0.0687
     49 C36        43.0320   52.8700    3.6730 C.ar      1 RXP        -0.0685
     50 C37        43.8390   54.0700    3.0080 C.ar      1 RXP        -0.0578
     51 H1         37.5543   64.1021    4.1703 H         1 RXP         0.1815
     52 H2         38.3732   62.8774    3.2594 H         1 RXP         0.1815
     53 H3         40.5712   61.2079    6.8097 H         1 RXP         0.1884
     54 H4         39.5770   61.3088    4.0390 H         1 RXP         0.0815
     55 H5         38.3779   59.9118    6.4406 H         1 RXP         0.0397
     56 H6         39.5399   59.1840    5.2802 H         1 RXP         0.0397
     57 H7         35.8117   60.5460    5.4549 H         1 RXP         0.0795
     58 H8         34.5355   59.7776    3.3064 H         1 RXP         0.2216
     59 H9         39.9698   58.3875    2.9859 H         1 RXP         0.0540
     60 H10        35.1040   58.3600    0.8946 H         1 RXP         0.0541
     61 H11        39.5041   57.1789    0.7350 H         1 RXP         0.0510
     62 H12        37.0865   57.1473   -0.3157 H         1 RXP         0.0530
     63 H13        43.8803   63.7727    5.3977 H         1 RXP         0.0294
     64 H14        44.7101   63.2086    6.8876 H         1 RXP         0.0294
     65 H15        40.7054   63.9232   10.4904 H         1 RXP         0.0557
     66 H16        39.9650   65.6622   12.2141 H         1 RXP         0.0599
     67 H17        40.3415   68.1400   11.8488 H         1 RXP         0.0559
     68 H18        41.3690   68.9258    9.6975 H         1 RXP         0.0599
     69 H19        42.1125   67.2755    7.8587 H         1 RXP         0.0557
     70 H20        42.6948   61.7510    7.3325 H         1 RXP         0.0554
     71 H21        42.3037   64.8508    6.4810 H         1 RXP         0.0289
     72 H22        43.7508   65.1120    7.5126 H         1 RXP         0.0289
     73 H23        41.2068   63.6497    8.2177 H         1 RXP         0.0426
     74 H24        42.6809   63.6897    9.2435 H         1 RXP         0.0426
     75 H25        44.5864   61.6696    4.9326 H         1 RXP         0.0493
     76 H26        43.5943   60.2374    5.3697 H         1 RXP         0.0493
     77 H27        44.4181   58.3182    6.3770 H         1 RXP         0.1888
     78 H28        46.8715   59.4556    5.3335 H         1 RXP         0.0787
     79 H29        46.4401   57.7014    7.7705 H         1 RXP         0.0465
     80 H30        47.5374   59.1169    7.9085 H         1 RXP         0.0465
     81 H31        46.9793   55.7377    6.1440 H         1 RXP         0.0557
     82 H32        49.7137   59.2171    6.9966 H         1 RXP         0.0557
     83 H33        48.8511   54.4194    5.0311 H         1 RXP         0.0599
     84 H34        51.6431   57.8577    5.9037 H         1 RXP         0.0599
     85 H35        51.1771   55.5069    4.9353 H         1 RXP         0.0559
     86 H36        46.9505   55.6138    2.4587 H         1 RXP         0.0776
     87 H37        45.3045   56.1076    1.9357 H         1 RXP         0.0776
     88 H38        47.1217   53.6919    4.5650 H         1 RXP         0.0557
     89 H39        45.8184   51.8144    5.8647 H         1 RXP         0.0599
     90 H40        43.2998   51.3084    5.3257 H         1 RXP         0.0559
     91 H41        42.0191   52.6157    3.3826 H         1 RXP         0.0599
     92 H42        43.3231   54.6834    2.2781 H         1 RXP         0.0557
@<TRIPOS>BOND
     1   14    1 am 
     2    2    3 1  
     3   17    2 am 
     4    3    4 1  
     5    3   14 1  
     6    4    5 1  
     7    5    6 1  
     8    5    7 2  
     9    6    9 ar 
    10    6   10 ar 
    11    7    8 1  
    12    8    9 1  
    13    9   11 ar 
    14   10   12 ar 
    15   11   13 ar 
    16   12   13 ar 
    17   14   15 2  
    18   17   16 2  
    19   25   17 1  
    20   18   25 1  
    21   26   18 1  
    22   19   20 ar 
    23   19   24 ar 
    24   27   19 1  
    25   20   21 ar 
    26   21   22 ar 
    27   23   22 ar 
    28   24   23 ar 
    29   25   28 1  
    30   26   27 1  
    31   28   29 1  
    32   29   30 ar 
    33   29   31 ar 
    34   29   33 1  
    35   33   32 1  
    36   32   41 am 
    37   33   34 1  
    38   34   35 1  
    39   35   36 ar 
    40   35   37 ar 
    41   36   38 ar 
    42   37   39 ar 
    43   38   40 ar 
    44   39   40 ar 
    45   41   42 2  
    46   41   43 1  
    47   43   44 1  
    48   44   45 1  
    49   45   46 ar 
    50   45   50 ar 
    51   46   47 ar 
    52   47   48 ar 
    53   48   49 ar 
    54   49   50 ar 
    55    1   51 1  
    56    1   52 1  
    57    2   53 1  
    58    3   54 1  
    59    4   55 1  
    60    4   56 1  
    61    7   57 1  
    62    8   58 1  
    63   10   59 1  
    64   11   60 1  
    65   12   61 1  
    66   13   62 1  
    67   18   63 1  
    68   18   64 1  
    69   20   65 1  
    70   21   66 1  
    71   22   67 1  
    72   23   68 1  
    73   24   69 1  
    74   25   70 1  
    75   26   71 1  
    76   26   72 1  
    77   27   73 1  
    78   27   74 1  
    79   28   75 1  
    80   28   76 1  
    81   32   77 1  
    82   33   78 1  
    83   34   79 1  
    84   34   80 1  
    85   36   81 1  
    86   37   82 1  
    87   38   83 1  
    88   39   84 1  
    89   40   85 1  
    90   44   86 1  
    91   44   87 1  
    92   46   88 1  
    93   47   89 1  
    94   48   90 1  
    95   49   91 1  
    96   50   92 1  
@<TRIPOS>SUBSTRUCTURE
     1 RXP         1

